REMARK score -96.38
LCcorina  10041815553D 1   1.00000     0.00000     0
CORINA 4.00 0026  26.04.2017
 90 92  0  0  0  0            999 V2000
   31.5509    4.5957   14.3313 C   0  0  0  0  0  0  0  0  0  0  0  0
   32.7807    4.7940   13.6214 O   0  0  0  0  0  0  0  0  0  0  0  0
   30.6497    3.7570   13.3907 C   0  0  0  0  0  0  0  0  0  0  0  0
   31.2278    2.4219   13.1292 N   0  3  0  0  0  0  0  0  0  0  0  0
   30.5584    1.7491   12.0021 C   0  0  0  0  0  0  0  0  0  0  0  0
   30.8676    0.2413   11.9094 C   0  0  0  0  0  0  0  0  0  0  0  0
   29.4667    0.7100   12.3551 C   0  0  0  0  0  0  0  0  0  0  0  0
   30.5108    2.4645   10.6461 C   0  0  0  0  0  0  0  0  0  0  0  0
   31.7085    2.6465    9.9184 C   0  0  0  0  0  0  0  0  0  0  0  0
   31.7030    3.3047    8.6594 C   0  0  0  0  0  0  0  0  0  0  0  0
   30.4694    3.7778    8.1475 C   0  0  0  0  0  0  0  0  0  0  0  0
   29.2648    3.6033    8.8686 C   0  0  0  0  0  0  0  0  0  0  0  0
   29.2854    2.9457   10.1183 C   0  0  0  0  0  0  0  0  0  0  0  0
   33.0142    3.4801    7.9025 C   0  0  0  0  0  0  0  0  0  0  0  0
   33.3417    2.1948    7.1492 C   0  0  0  0  0  0  0  0  0  0  0  0
   32.8769    4.6287    6.9086 C   0  0  0  0  0  0  0  0  0  0  0  0
   34.1337    3.7914    8.8885 C   0  0  0  0  0  0  0  0  0  0  0  0
   27.4020    6.6138   17.1724 N   0  0  0  0  0  0  0  0  0  0  0  0
   27.4209    5.4691   16.2173 C   0  0  0  0  0  0  0  0  0  0  0  0
   28.4932    5.6289   15.1339 C   0  0  0  0  0  0  0  0  0  0  0  0
   29.7488    5.7284   15.5740 N   0  0  0  0  0  0  0  0  0  0  0  0
   30.9009    5.9373   14.6885 C   0  0  0  0  0  0  0  0  0  0  0  0
   31.9152    6.8807   15.3686 C   0  0  0  0  0  0  0  0  0  0  0  0
   31.2207    8.2337   15.8118 C   0  0  0  0  0  0  0  0  0  0  0  0
   32.3550    9.0923   16.4012 C   0  0  0  0  0  0  0  0  0  0  0  0
   31.8626   10.3916   17.0956 C   0  0  0  0  0  0  0  0  0  0  0  0
   30.8932   10.1571   18.2658 C   0  0  0  0  0  0  0  0  0  0  0  0
   31.5282    9.2143   19.3473 C   0  0  0  0  0  0  0  0  0  0  0  0
   30.7066    9.3458   20.6753 C   0  0  0  0  0  0  0  0  0  0  0  0
   29.1764    9.1329   20.4634 C   0  0  0  0  0  0  0  0  0  0  0  0
   28.8836    7.9727   19.5313 O   0  0  0  0  0  0  0  0  0  0  0  0
   27.4627    7.5107   19.5111 C   0  0  0  0  0  0  0  0  0  0  0  0
   27.3265    6.3585   18.5102 C   0  0  0  0  0  0  0  0  0  0  0  0
   27.1593    5.2242   18.9600 O   0  0  0  0  0  0  0  0  0  0  0  0
   30.5498    8.9660   14.5629 C   0  0  0  0  0  0  0  0  0  0  0  0
   28.1796    5.7332   13.9498 O   0  0  0  0  0  0  0  0  0  0  0  0
   26.0452    5.2304   15.5522 C   0  0  0  0  0  0  0  0  0  0  0  0
   27.4572    7.9830   16.5957 C   0  0  0  0  0  0  0  0  0  0  0  0
   31.7856    4.0836   15.2760 H   0  0  0  0  0  0  0  0  0  0  0  0
   33.7064    5.0105   14.1747 H   0  0  0  0  0  0  0  0  0  0  0  0
   29.6613    3.6221   13.8541 H   0  0  0  0  0  0  0  0  0  0  0  0
   30.5358    4.2798   12.4296 H   0  0  0  0  0  0  0  0  0  0  0  0
   32.2955    2.5260   12.8853 H   0  0  0  0  0  0  0  0  0  0  0  0
   31.1507   -0.0122   10.8771 H   0  0  0  0  0  0  0  0  0  0  0  0
   31.6974   -0.0053   12.5881 H   0  0  0  0  0  0  0  0  0  0  0  0
   29.1494    0.8516   13.3988 H   0  0  0  0  0  0  0  0  0  0  0  0
   28.6027    0.8447   11.6878 H   0  0  0  0  0  0  0  0  0  0  0  0
   32.6438    2.2833   10.3181 H   0  0  0  0  0  0  0  0  0  0  0  0
   30.4383    4.2808    7.1923 H   0  0  0  0  0  0  0  0  0  0  0  0
   28.3344    3.9723    8.4629 H   0  0  0  0  0  0  0  0  0  0  0  0
   28.3683    2.8092   10.6721 H   0  0  0  0  0  0  0  0  0  0  0  0
   34.2511    2.3435    6.5484 H   0  0  0  0  0  0  0  0  0  0  0  0
   32.5031    1.9342    6.4867 H   0  0  0  0  0  0  0  0  0  0  0  0
   33.5072    1.3798    7.8692 H   0  0  0  0  0  0  0  0  0  0  0  0
   32.2552    4.3071    6.0601 H   0  0  0  0  0  0  0  0  0  0  0  0
   33.8732    4.9191    6.5439 H   0  0  0  0  0  0  0  0  0  0  0  0
   32.4033    5.4886    7.4051 H   0  0  0  0  0  0  0  0  0  0  0  0
   33.7622    4.4840    9.6581 H   0  0  0  0  0  0  0  0  0  0  0  0
   34.9753    4.2551    8.3532 H   0  0  0  0  0  0  0  0  0  0  0  0
   34.4713    2.8597    9.3659 H   0  0  0  0  0  0  0  0  0  0  0  0
   27.6802    4.6115   16.8556 H   0  0  0  0  0  0  0  0  0  0  0  0
   29.8982    5.6458   16.6607 H   0  0  0  0  0  0  0  0  0  0  0  0
   30.5112    6.3992   13.7693 H   0  0  0  0  0  0  0  0  0  0  0  0
   32.3319    6.3896   16.2603 H   0  0  0  0  0  0  0  0  0  0  0  0
   32.7279    7.1139   14.6649 H   0  0  0  0  0  0  0  0  0  0  0  0
   30.4363    8.0695   16.5653 H   0  0  0  0  0  0  0  0  0  0  0  0
   32.9038    8.5078   17.1543 H   0  0  0  0  0  0  0  0  0  0  0  0
   33.0431    9.3927   15.5974 H   0  0  0  0  0  0  0  0  0  0  0  0
   32.7258   10.9414   17.4990 H   0  0  0  0  0  0  0  0  0  0  0  0
   31.3360   11.0216   16.3637 H   0  0  0  0  0  0  0  0  0  0  0  0
   30.6642   11.1177   18.7505 H   0  0  0  0  0  0  0  0  0  0  0  0
   29.9636    9.7068   17.8873 H   0  0  0  0  0  0  0  0  0  0  0  0
   31.4961    8.1701   19.0030 H   0  0  0  0  0  0  0  0  0  0  0  0
   32.5718    9.5062   19.5362 H   0  0  0  0  0  0  0  0  0  0  0  0
   31.0537    8.5921   21.3974 H   0  0  0  0  0  0  0  0  0  0  0  0
   30.8504   10.3514   21.0975 H   0  0  0  0  0  0  0  0  0  0  0  0
   28.6994    8.9133   21.4301 H   0  0  0  0  0  0  0  0  0  0  0  0
   28.7349   10.0452   20.0358 H   0  0  0  0  0  0  0  0  0  0  0  0
   27.1750    7.1657   20.5151 H   0  0  0  0  0  0  0  0  0  0  0  0
   26.8106    8.3434   19.2088 H   0  0  0  0  0  0  0  0  0  0  0  0
   29.6961    8.3720   14.2047 H   0  0  0  0  0  0  0  0  0  0  0  0
   31.2904    9.0672   13.7560 H   0  0  0  0  0  0  0  0  0  0  0  0
   30.2004    9.9637   14.8673 H   0  0  0  0  0  0  0  0  0  0  0  0
   26.1118    4.3695   14.8707 H   0  0  0  0  0  0  0  0  0  0  0  0
   25.7523    6.1258   14.9842 H   0  0  0  0  0  0  0  0  0  0  0  0
   25.2931    5.0263   16.3285 H   0  0  0  0  0  0  0  0  0  0  0  0
   28.2099    8.5775   17.1341 H   0  0  0  0  0  0  0  0  0  0  0  0
   26.4721    8.4624   16.6945 H   0  0  0  0  0  0  0  0  0  0  0  0
   27.7302    7.9221   15.5319 H   0  0  0  0  0  0  0  0  0  0  0  0
   31.1322    1.8524   13.9578 H   0  0  0  0  0  0  0  0  0  0  0  0
  1  2  1  0  0  0  0
  1  3  1  0  0  0  0
  1 22  1  0  0  0  0
  1 39  1  0  0  0  0
  2 40  1  0  0  0  0
  3  4  1  0  0  0  0
  3 41  1  0  0  0  0
  3 42  1  0  0  0  0
  4  5  1  0  0  0  0
  4 43  1  0  0  0  0
  4 90  1  0  0  0  0
  5  6  1  0  0  0  0
  5  7  1  0  0  0  0
  5  8  1  0  0  0  0
  6  7  1  0  0  0  0
  6 44  1  0  0  0  0
  6 45  1  0  0  0  0
  7 46  1  0  0  0  0
  7 47  1  0  0  0  0
  8  9  2  0  0  0  0
  8 13  1  0  0  0  0
  9 10  1  0  0  0  0
  9 48  1  0  0  0  0
 10 11  2  0  0  0  0
 10 14  1  0  0  0  0
 11 12  1  0  0  0  0
 11 49  1  0  0  0  0
 12 13  2  0  0  0  0
 12 50  1  0  0  0  0
 13 51  1  0  0  0  0
 14 15  1  0  0  0  0
 14 16  1  0  0  0  0
 14 17  1  0  0  0  0
 15 52  1  0  0  0  0
 15 53  1  0  0  0  0
 15 54  1  0  0  0  0
 16 55  1  0  0  0  0
 16 56  1  0  0  0  0
 16 57  1  0  0  0  0
 17 58  1  0  0  0  0
 17 59  1  0  0  0  0
 17 60  1  0  0  0  0
 18 19  1  0  0  0  0
 18 33  1  0  0  0  0
 18 38  1  0  0  0  0
 19 20  1  0  0  0  0
 19 37  1  0  0  0  0
 19 61  1  0  0  0  0
 20 21  1  0  0  0  0
 20 36  2  0  0  0  0
 21 22  1  0  0  0  0
 21 62  1  0  0  0  0
 22 23  1  0  0  0  0
 22 63  1  0  0  0  0
 23 24  1  0  0  0  0
 23 64  1  0  0  0  0
 23 65  1  0  0  0  0
 24 25  1  0  0  0  0
 24 35  1  0  0  0  0
 24 66  1  0  0  0  0
 25 26  1  0  0  0  0
 25 67  1  0  0  0  0
 25 68  1  0  0  0  0
 26 27  1  0  0  0  0
 26 69  1  0  0  0  0
 26 70  1  0  0  0  0
 27 28  1  0  0  0  0
 27 71  1  0  0  0  0
 27 72  1  0  0  0  0
 28 29  1  0  0  0  0
 28 73  1  0  0  0  0
 28 74  1  0  0  0  0
 29 30  1  0  0  0  0
 29 75  1  0  0  0  0
 29 76  1  0  0  0  0
 30 31  1  0  0  0  0
 30 77  1  0  0  0  0
 30 78  1  0  0  0  0
 31 32  1  0  0  0  0
 32 33  1  0  0  0  0
 32 79  1  0  0  0  0
 32 80  1  0  0  0  0
 33 34  2  0  0  0  0
 35 81  1  0  0  0  0
 35 82  1  0  0  0  0
 35 83  1  0  0  0  0
 37 84  1  0  0  0  0
 37 85  1  0  0  0  0
 37 86  1  0  0  0  0
 38 87  1  0  0  0  0
 38 88  1  0  0  0  0
 38 89  1  0  0  0  0
M  CHG  1   4   1
M  END
$$$$
