REMARK score -107.15
LCcorina  10041815563D 1   1.00000     0.00000     0
CORINA 4.00 0026  26.04.2017
 99103  0  0  0  0            999 V2000
   26.0120    5.2247   17.1304 C   0  0  0  0  0  0  0  0  0  0  0  0
   26.4129    5.9437   18.2587 C   0  0  0  0  0  0  0  0  0  0  0  0
   27.6961    6.5208   18.2724 C   0  0  0  0  0  0  0  0  0  0  0  0
   26.8310    5.1715   15.9875 C   0  0  0  0  0  0  0  0  0  0  0  0
   28.0498    5.8372   15.9965 C   0  0  0  0  0  0  0  0  0  0  0  0
   28.4355    6.5464   17.1389 C   0  0  0  0  0  0  0  0  0  0  0  0
   28.9508    5.7579   14.8061 C   0  0  0  0  0  0  0  0  0  0  0  0
   28.5574    5.9069   13.6550 O   0  0  0  0  0  0  0  0  0  0  0  0
   30.2184    5.5301   15.1407 N   0  0  0  0  0  0  0  0  0  0  0  0
   31.4096    5.6841   14.2991 C   0  0  0  0  0  0  0  0  0  0  0  0
   31.9172    4.2659   14.0350 C   0  0  0  0  0  0  0  0  0  0  0  0
   30.9735    3.5150   13.1028 C   0  0  0  0  0  0  0  0  0  0  0  0
   31.3860    2.1434   12.8687 N   0  3  0  0  0  0  0  0  0  0  0  0
   30.6596    1.3719   11.8689 C   0  0  0  0  0  0  0  0  0  0  0  0
   30.5068    2.1138   10.5559 C   0  0  0  0  0  0  0  0  0  0  0  0
   31.6263    2.5934    9.9164 C   0  0  0  0  0  0  0  0  0  0  0  0
   31.5403    3.2802    8.7221 C   0  0  0  0  0  0  0  0  0  0  0  0
   32.8087    3.7992    8.1385 C   0  0  0  0  0  0  0  0  0  0  0  0
   33.4712    4.7776    9.0678 C   0  0  0  0  0  0  0  0  0  0  0  0
   33.7429    2.6686    7.7549 C   0  0  0  0  0  0  0  0  0  0  0  0
   30.2843    3.5066    8.1551 C   0  0  0  0  0  0  0  0  0  0  0  0
   29.1509    3.0195    8.8081 C   0  0  0  0  0  0  0  0  0  0  0  0
   29.2282    2.3068    9.9966 C   0  0  0  0  0  0  0  0  0  0  0  0
   33.2208    4.3157   13.4072 O   0  0  0  0  0  0  0  0  0  0  0  0
   32.5026    6.5602   14.9902 C   0  0  0  0  0  0  0  0  0  0  0  0
   31.9326    7.7469   15.6303 C   0  0  0  0  0  0  0  0  0  0  0  0
   32.6375    8.2156   16.8151 C   0  0  0  0  0  0  0  0  0  0  0  0
   31.7796    9.0978   17.7305 C   0  0  0  0  0  0  0  0  0  0  0  0
   31.4661    8.8513   18.9890 C   0  0  0  0  0  0  0  0  0  0  0  0
   30.5944    9.8881   19.6831 C   0  0  0  0  0  0  0  0  0  0  0  0
   29.4393    9.1701   20.3750 C   0  0  0  0  0  0  0  0  0  0  0  0
   28.6442    8.4414   19.3750 N   0  0  0  0  0  0  0  0  0  0  0  0
   28.4523    7.0902   19.4246 C   0  0  0  0  0  0  0  0  0  0  0  0
   28.9044    6.3541   20.2996 O   0  0  0  0  0  0  0  0  0  0  0  0
   27.6632    9.3181   18.7237 C   0  0  0  0  0  0  0  0  0  0  0  0
   28.2853   10.2769   17.6950 C   0  0  0  0  0  0  0  0  0  0  0  0
   31.8501    8.8892   14.6012 C   0  0  0  0  0  0  0  0  0  0  0  0
   24.7301    4.5174   17.1301 C   0  0  0  0  0  0  0  0  0  0  0  0
   23.9180    4.4312   16.0725 N   0  0  0  0  0  0  0  0  0  0  0  0
   22.7447    3.6459   16.4769 C   0  0  0  0  0  0  0  0  0  0  0  0
   22.9121    3.3004   17.7579 C   0  0  0  0  0  0  0  0  0  0  0  0
   24.1981    3.8101   18.3419 O   0  0  0  0  0  0  0  0  0  0  0  0
   25.6256   11.5147   21.8412 C   0  0  0  0  0  0  0  0  0  0  0  0
   25.7133   10.1144   21.9110 C   0  0  0  0  0  0  0  0  0  0  0  0
   26.3816    9.4017   20.9027 C   0  0  0  0  0  0  0  0  0  0  0  0
   26.9631   10.0885   19.8247 C   0  0  0  0  0  0  0  0  0  0  0  0
   26.8755   11.4892   19.7559 C   0  0  0  0  0  0  0  0  0  0  0  0
   26.2072   12.2019   20.7641 C   0  0  0  0  0  0  0  0  0  0  0  0
   25.7423    6.0481   19.0989 H   0  0  0  0  0  0  0  0  0  0  0  0
   26.5092    4.6177   15.1178 H   0  0  0  0  0  0  0  0  0  0  0  0
   29.3474    7.1241   17.1019 H   0  0  0  0  0  0  0  0  0  0  0  0
   30.3206    5.1890   16.1815 H   0  0  0  0  0  0  0  0  0  0  0  0
   31.1102    6.1931   13.3711 H   0  0  0  0  0  0  0  0  0  0  0  0
   32.0264    3.7360   14.9928 H   0  0  0  0  0  0  0  0  0  0  0  0
   29.9654    3.4918   13.5423 H   0  0  0  0  0  0  0  0  0  0  0  0
   30.9372    4.0252   12.1289 H   0  0  0  0  0  0  0  0  0  0  0  0
   32.4343    2.1275   12.5358 H   0  0  0  0  0  0  0  0  0  0  0  0
   31.1988    0.4349   11.6658 H   0  0  0  0  0  0  0  0  0  0  0  0
   29.6520    1.1410   12.2448 H   0  0  0  0  0  0  0  0  0  0  0  0
   32.6037    2.4360   10.3479 H   0  0  0  0  0  0  0  0  0  0  0  0
   32.5420    4.3444    7.2212 H   0  0  0  0  0  0  0  0  0  0  0  0
   34.2745    5.3053    8.5327 H   0  0  0  0  0  0  0  0  0  0  0  0
   33.8960    4.2375    9.9268 H   0  0  0  0  0  0  0  0  0  0  0  0
   32.7278    5.5061    9.4239 H   0  0  0  0  0  0  0  0  0  0  0  0
   34.6386    3.0821    7.2683 H   0  0  0  0  0  0  0  0  0  0  0  0
   33.2291    1.9883    7.0598 H   0  0  0  0  0  0  0  0  0  0  0  0
   34.0389    2.1149    8.6581 H   0  0  0  0  0  0  0  0  0  0  0  0
   30.2014    4.0509    7.2260 H   0  0  0  0  0  0  0  0  0  0  0  0
   28.1704    3.1929    8.3899 H   0  0  0  0  0  0  0  0  0  0  0  0
   28.3561    1.9062   10.4919 H   0  0  0  0  0  0  0  0  0  0  0  0
   34.0860    4.7016   13.9661 H   0  0  0  0  0  0  0  0  0  0  0  0
   33.0143    5.9667   15.7621 H   0  0  0  0  0  0  0  0  0  0  0  0
   33.2342    6.8937   14.2393 H   0  0  0  0  0  0  0  0  0  0  0  0
   30.9647    7.4024   16.0234 H   0  0  0  0  0  0  0  0  0  0  0  0
   32.9707    7.3519   17.4092 H   0  0  0  0  0  0  0  0  0  0  0  0
   33.5115    8.8102   16.5106 H   0  0  0  0  0  0  0  0  0  0  0  0
   32.2501   10.0868   17.8326 H   0  0  0  0  0  0  0  0  0  0  0  0
   30.7764    9.2124   17.2942 H   0  0  0  0  0  0  0  0  0  0  0  0
   30.9134    7.9023   19.0501 H   0  0  0  0  0  0  0  0  0  0  0  0
   32.3855    8.7794   19.5886 H   0  0  0  0  0  0  0  0  0  0  0  0
   31.1947   10.4335   20.4261 H   0  0  0  0  0  0  0  0  0  0  0  0
   30.2023   10.5957   18.9377 H   0  0  0  0  0  0  0  0  0  0  0  0
   29.8390    8.4596   21.1136 H   0  0  0  0  0  0  0  0  0  0  0  0
   28.8011    9.9076   20.8836 H   0  0  0  0  0  0  0  0  0  0  0  0
   26.9721    8.6658   18.1698 H   0  0  0  0  0  0  0  0  0  0  0  0
   27.4928   10.8850   17.2344 H   0  0  0  0  0  0  0  0  0  0  0  0
   28.8003    9.6952   16.9163 H   0  0  0  0  0  0  0  0  0  0  0  0
   29.0077   10.9362   18.1983 H   0  0  0  0  0  0  0  0  0  0  0  0
   31.3941    9.7734   15.0706 H   0  0  0  0  0  0  0  0  0  0  0  0
   31.2352    8.5694   13.7469 H   0  0  0  0  0  0  0  0  0  0  0  0
   32.8619    9.1408   14.2507 H   0  0  0  0  0  0  0  0  0  0  0  0
   21.9539    3.4522   15.7674 H   0  0  0  0  0  0  0  0  0  0  0  0
   22.1588    2.7129   18.2616 H   0  0  0  0  0  0  0  0  0  0  0  0
   25.1107   12.0628   22.6164 H   0  0  0  0  0  0  0  0  0  0  0  0
   25.2666    9.5860   22.7403 H   0  0  0  0  0  0  0  0  0  0  0  0
   26.4484    8.3251   20.9561 H   0  0  0  0  0  0  0  0  0  0  0  0
   27.3224   12.0181   18.9271 H   0  0  0  0  0  0  0  0  0  0  0  0
   26.1405   13.2785   20.7111 H   0  0  0  0  0  0  0  0  0  0  0  0
   31.2885    1.5671   13.8005 H   0  0  0  0  0  0  0  0  0  0  0  0
  1  2  2  0  0  0  0
  1  4  1  0  0  0  0
  1 38  1  0  0  0  0
  2  3  1  0  0  0  0
  2 49  1  0  0  0  0
  3  6  2  0  0  0  0
  3 33  1  0  0  0  0
  4  5  2  0  0  0  0
  4 50  1  0  0  0  0
  5  6  1  0  0  0  0
  5  7  1  0  0  0  0
  6 51  1  0  0  0  0
  7  8  2  0  0  0  0
  7  9  1  0  0  0  0
  9 10  1  0  0  0  0
  9 52  1  0  0  0  0
 10 11  1  0  0  0  0
 10 25  1  0  0  0  0
 10 53  1  0  0  0  0
 11 12  1  0  0  0  0
 11 24  1  0  0  0  0
 11 54  1  0  0  0  0
 12 13  1  0  0  0  0
 12 55  1  0  0  0  0
 12 56  1  0  0  0  0
 13 14  1  0  0  0  0
 13 57  1  0  0  0  0
 13 99  1  0  0  0  0
 14 15  1  0  0  0  0
 14 58  1  0  0  0  0
 14 59  1  0  0  0  0
 15 16  2  0  0  0  0
 15 23  1  0  0  0  0
 16 17  1  0  0  0  0
 16 60  1  0  0  0  0
 17 18  1  0  0  0  0
 17 21  2  0  0  0  0
 18 19  1  0  0  0  0
 18 20  1  0  0  0  0
 18 61  1  0  0  0  0
 19 62  1  0  0  0  0
 19 63  1  0  0  0  0
 19 64  1  0  0  0  0
 20 65  1  0  0  0  0
 20 66  1  0  0  0  0
 20 67  1  0  0  0  0
 21 22  1  0  0  0  0
 21 68  1  0  0  0  0
 22 23  2  0  0  0  0
 22 69  1  0  0  0  0
 23 70  1  0  0  0  0
 24 71  1  0  0  0  0
 25 26  1  0  0  0  0
 25 72  1  0  0  0  0
 25 73  1  0  0  0  0
 26 27  1  0  0  0  0
 26 37  1  0  0  0  0
 26 74  1  0  0  0  0
 27 28  1  0  0  0  0
 27 75  1  0  0  0  0
 27 76  1  0  0  0  0
 28 29  1  0  0  0  0
 28 77  1  0  0  0  0
 28 78  1  0  0  0  0
 29 30  1  0  0  0  0
 29 79  1  0  0  0  0
 29 80  1  0  0  0  0
 30 31  1  0  0  0  0
 30 81  1  0  0  0  0
 30 82  1  0  0  0  0
 31 32  1  0  0  0  0
 31 83  1  0  0  0  0
 31 84  1  0  0  0  0
 32 33  1  0  0  0  0
 32 35  1  0  0  0  0
 33 34  2  0  0  0  0
 35 36  1  0  0  0  0
 35 46  1  0  0  0  0
 35 85  1  0  0  0  0
 36 86  1  0  0  0  0
 36 87  1  0  0  0  0
 36 88  1  0  0  0  0
 37 89  1  0  0  0  0
 37 90  1  0  0  0  0
 37 91  1  0  0  0  0
 38 39  2  0  0  0  0
 38 42  1  0  0  0  0
 39 40  1  0  0  0  0
 40 41  2  0  0  0  0
 40 92  1  0  0  0  0
 41 42  1  0  0  0  0
 41 93  1  0  0  0  0
 43 44  2  0  0  0  0
 43 48  1  0  0  0  0
 43 94  1  0  0  0  0
 44 45  1  0  0  0  0
 44 95  1  0  0  0  0
 45 46  2  0  0  0  0
 45 96  1  0  0  0  0
 46 47  1  0  0  0  0
 47 48  2  0  0  0  0
 47 97  1  0  0  0  0
 48 98  1  0  0  0  0
M  CHG  1  13   1
M  END
$$$$
