REMARK score -91.46
LCcorina  10041815563D 1   1.00000     0.00000     0
CORINA 4.00 0026  26.04.2017
 80 81  0  0  0  0            999 V2000
   33.9967    5.3581    9.1859 C   0  0  0  0  0  0  0  0  0  0  0  0
   32.8799    5.6936    8.2105 C   0  0  0  0  0  0  0  0  0  0  0  0
   32.0881    4.4469    7.8151 C   0  0  0  0  0  0  0  0  0  0  0  0
   31.4016    3.8418    8.9881 C   0  0  0  0  0  0  0  0  0  0  0  0
   31.7937    2.8679    9.8802 C   0  0  0  0  0  0  0  0  0  0  0  0
   30.7061    2.7299   10.7620 C   0  0  0  0  0  0  0  0  0  0  0  0
   29.7002    3.5512   10.4594 N   0  0  0  0  0  0  0  0  0  0  0  0
   30.1457    4.2167    9.3799 N   0  0  0  0  0  0  0  0  0  0  0  0
   31.5630    4.6126   14.3519 C   0  0  0  0  0  0  0  0  0  0  0  0
   32.7624    4.8321   13.5411 O   0  0  0  0  0  0  0  0  0  0  0  0
   30.5960    3.8175   13.4791 C   0  0  0  0  0  0  0  0  0  0  0  0
   31.1683    2.4998   13.1023 N   0  3  0  0  0  0  0  0  0  0  0  0
   30.5638    1.7848   11.9697 C   0  0  0  0  0  0  0  0  0  0  0  0
   27.4233    6.6411   17.1690 N   0  0  0  0  0  0  0  0  0  0  0  0
   27.4267    5.5062   16.2045 C   0  0  0  0  0  0  0  0  0  0  0  0
   28.5014    5.6828   15.1314 C   0  0  0  0  0  0  0  0  0  0  0  0
   29.7568    5.7719   15.5819 N   0  0  0  0  0  0  0  0  0  0  0  0
   30.9180    5.9608   14.7021 C   0  0  0  0  0  0  0  0  0  0  0  0
   31.9295    6.8994   15.3838 C   0  0  0  0  0  0  0  0  0  0  0  0
   31.2379    8.2566   15.8178 C   0  0  0  0  0  0  0  0  0  0  0  0
   32.3716    9.1128   16.4117 C   0  0  0  0  0  0  0  0  0  0  0  0
   31.8799   10.4167   17.0980 C   0  0  0  0  0  0  0  0  0  0  0  0
   30.9012   10.1906   18.2619 C   0  0  0  0  0  0  0  0  0  0  0  0
   31.5243    9.2490   19.3514 C   0  0  0  0  0  0  0  0  0  0  0  0
   30.6938    9.3887   20.6730 C   0  0  0  0  0  0  0  0  0  0  0  0
   29.1641    9.1817   20.4508 C   0  0  0  0  0  0  0  0  0  0  0  0
   28.8733    8.0075   19.5340 O   0  0  0  0  0  0  0  0  0  0  0  0
   27.4498    7.5562   19.5029 C   0  0  0  0  0  0  0  0  0  0  0  0
   27.3118    6.3962   18.5036 C   0  0  0  0  0  0  0  0  0  0  0  0
   27.1061    5.2673   18.9530 O   0  0  0  0  0  0  0  0  0  0  0  0
   30.5782    8.9874   14.5619 C   0  0  0  0  0  0  0  0  0  0  0  0
   28.1941    5.7979   13.9463 O   0  0  0  0  0  0  0  0  0  0  0  0
   26.0514    5.2752   15.5310 C   0  0  0  0  0  0  0  0  0  0  0  0
   27.5762    8.0104   16.6242 C   0  0  0  0  0  0  0  0  0  0  0  0
   33.5650    4.9465   10.1102 H   0  0  0  0  0  0  0  0  0  0  0  0
   34.5646    6.2703    9.4210 H   0  0  0  0  0  0  0  0  0  0  0  0
   34.6686    4.6145    8.7323 H   0  0  0  0  0  0  0  0  0  0  0  0
   32.1891    6.4114    8.6769 H   0  0  0  0  0  0  0  0  0  0  0  0
   33.3092    6.1368    7.2998 H   0  0  0  0  0  0  0  0  0  0  0  0
   31.3274    4.7174    7.0680 H   0  0  0  0  0  0  0  0  0  0  0  0
   32.7718    3.6985    7.3878 H   0  0  0  0  0  0  0  0  0  0  0  0
   32.6116    2.3061   10.0035 H   0  0  0  0  0  0  0  0  0  0  0  0
   28.7849    3.5478   11.0695 H   0  0  0  0  0  0  0  0  0  0  0  0
   31.8474    4.0800   15.2713 H   0  0  0  0  0  0  0  0  0  0  0  0
   33.7108    5.1083   14.0254 H   0  0  0  0  0  0  0  0  0  0  0  0
   29.6595    3.6475   14.0305 H   0  0  0  0  0  0  0  0  0  0  0  0
   30.3829    4.3822   12.5596 H   0  0  0  0  0  0  0  0  0  0  0  0
   32.2268    2.6240   12.8302 H   0  0  0  0  0  0  0  0  0  0  0  0
   31.1005    0.8389   11.8048 H   0  0  0  0  0  0  0  0  0  0  0  0
   29.5074    1.5730   12.1915 H   0  0  0  0  0  0  0  0  0  0  0  0
   27.6713    4.6373   16.8333 H   0  0  0  0  0  0  0  0  0  0  0  0
   29.8978    5.6966   16.6703 H   0  0  0  0  0  0  0  0  0  0  0  0
   30.5394    6.4181   13.7760 H   0  0  0  0  0  0  0  0  0  0  0  0
   32.3383    6.4094   16.2798 H   0  0  0  0  0  0  0  0  0  0  0  0
   32.7479    7.1266   14.6847 H   0  0  0  0  0  0  0  0  0  0  0  0
   30.4482    8.0983   16.5668 H   0  0  0  0  0  0  0  0  0  0  0  0
   32.9129    8.5289   17.1707 H   0  0  0  0  0  0  0  0  0  0  0  0
   33.0665    9.4074   15.6115 H   0  0  0  0  0  0  0  0  0  0  0  0
   32.7425   10.9643   17.5055 H   0  0  0  0  0  0  0  0  0  0  0  0
   31.3613   11.0464   16.3600 H   0  0  0  0  0  0  0  0  0  0  0  0
   30.6729   11.1539   18.7414 H   0  0  0  0  0  0  0  0  0  0  0  0
   29.9725    9.7428   17.8784 H   0  0  0  0  0  0  0  0  0  0  0  0
   31.4903    8.2037   19.0106 H   0  0  0  0  0  0  0  0  0  0  0  0
   32.5678    9.5370   19.5468 H   0  0  0  0  0  0  0  0  0  0  0  0
   31.0323    8.6360   21.4002 H   0  0  0  0  0  0  0  0  0  0  0  0
   30.8388   10.3951   21.0926 H   0  0  0  0  0  0  0  0  0  0  0  0
   28.6774    8.9801   21.4165 H   0  0  0  0  0  0  0  0  0  0  0  0
   28.7321   10.0897   20.0050 H   0  0  0  0  0  0  0  0  0  0  0  0
   27.1504    7.2181   20.5059 H   0  0  0  0  0  0  0  0  0  0  0  0
   26.8069    8.3922   19.1906 H   0  0  0  0  0  0  0  0  0  0  0  0
   29.7472    8.3775   14.1778 H   0  0  0  0  0  0  0  0  0  0  0  0
   31.3343    9.1153   13.7732 H   0  0  0  0  0  0  0  0  0  0  0  0
   30.1984    9.9729   14.8691 H   0  0  0  0  0  0  0  0  0  0  0  0
   26.1184    4.4176   14.8453 H   0  0  0  0  0  0  0  0  0  0  0  0
   25.7639    6.1744   14.9666 H   0  0  0  0  0  0  0  0  0  0  0  0
   25.2953    5.0693   16.3029 H   0  0  0  0  0  0  0  0  0  0  0  0
   27.9578    7.9546   15.5940 H   0  0  0  0  0  0  0  0  0  0  0  0
   28.2844    8.5761   17.2474 H   0  0  0  0  0  0  0  0  0  0  0  0
   26.5999    8.5171   16.6266 H   0  0  0  0  0  0  0  0  0  0  0  0
   31.1229    1.8972   13.9116 H   0  0  0  0  0  0  0  0  0  0  0  0
  1  2  1  0  0  0  0
  1 35  1  0  0  0  0
  1 36  1  0  0  0  0
  1 37  1  0  0  0  0
  2  3  1  0  0  0  0
  2 38  1  0  0  0  0
  2 39  1  0  0  0  0
  3 40  1  0  0  0  0
  3 41  1  0  0  0  0
  3  4  1  0  0  0  0
  4  8  2  0  0  0  0
  4  5  1  0  0  0  0
  5  6  2  0  0  0  0
  5 42  1  0  0  0  0
  6 13  1  0  0  0  0
  6  7  1  0  0  0  0
  7 43  1  0  0  0  0
  7  8  1  0  0  0  0
  9 10  1  0  0  0  0
  9 11  1  0  0  0  0
  9 18  1  0  0  0  0
  9 44  1  0  0  0  0
 10 45  1  0  0  0  0
 11 12  1  0  0  0  0
 11 46  1  0  0  0  0
 11 47  1  0  0  0  0
 12 13  1  0  0  0  0
 12 48  1  0  0  0  0
 12 80  1  0  0  0  0
 13 49  1  0  0  0  0
 13 50  1  0  0  0  0
 14 15  1  0  0  0  0
 14 29  1  0  0  0  0
 14 34  1  0  0  0  0
 15 16  1  0  0  0  0
 15 33  1  0  0  0  0
 15 51  1  0  0  0  0
 16 17  1  0  0  0  0
 16 32  2  0  0  0  0
 17 18  1  0  0  0  0
 17 52  1  0  0  0  0
 18 19  1  0  0  0  0
 18 53  1  0  0  0  0
 19 20  1  0  0  0  0
 19 54  1  0  0  0  0
 19 55  1  0  0  0  0
 20 21  1  0  0  0  0
 20 31  1  0  0  0  0
 20 56  1  0  0  0  0
 21 22  1  0  0  0  0
 21 57  1  0  0  0  0
 21 58  1  0  0  0  0
 22 23  1  0  0  0  0
 22 59  1  0  0  0  0
 22 60  1  0  0  0  0
 23 24  1  0  0  0  0
 23 61  1  0  0  0  0
 23 62  1  0  0  0  0
 24 25  1  0  0  0  0
 24 63  1  0  0  0  0
 24 64  1  0  0  0  0
 25 26  1  0  0  0  0
 25 65  1  0  0  0  0
 25 66  1  0  0  0  0
 26 27  1  0  0  0  0
 26 67  1  0  0  0  0
 26 68  1  0  0  0  0
 27 28  1  0  0  0  0
 28 29  1  0  0  0  0
 28 69  1  0  0  0  0
 28 70  1  0  0  0  0
 29 30  2  0  0  0  0
 31 71  1  0  0  0  0
 31 72  1  0  0  0  0
 31 73  1  0  0  0  0
 33 74  1  0  0  0  0
 33 75  1  0  0  0  0
 33 76  1  0  0  0  0
 34 77  1  0  0  0  0
 34 78  1  0  0  0  0
 34 79  1  0  0  0  0
M  CHG  1  12   1
M  END
$$$$
