REMARK score -90.21
LCcorina  10041815583D 1   1.00000     0.00000     0
CORINA 4.00 0026  26.04.2017
 87 88  0  0  0  0            999 V2000
   25.9314    5.1125   17.3673 C   0  0  0  0  0  0  0  0  0  0  0  0
   26.3958    5.7692   18.5087 C   0  0  0  0  0  0  0  0  0  0  0  0
   27.6294    6.4115   18.5006 C   0  0  0  0  0  0  0  0  0  0  0  0
   26.6868    5.1203   16.1800 C   0  0  0  0  0  0  0  0  0  0  0  0
   27.9071    5.7803   16.1600 C   0  0  0  0  0  0  0  0  0  0  0  0
   28.3567    6.4294   17.3141 C   0  0  0  0  0  0  0  0  0  0  0  0
   28.7339    5.7745   14.9144 C   0  0  0  0  0  0  0  0  0  0  0  0
   28.2672    5.9839   13.7999 O   0  0  0  0  0  0  0  0  0  0  0  0
   30.0161    5.5308   15.1565 N   0  0  0  0  0  0  0  0  0  0  0  0
   31.1655    5.7229   14.2694 C   0  0  0  0  0  0  0  0  0  0  0  0
   32.3013    6.5543   14.9475 C   0  0  0  0  0  0  0  0  0  0  0  0
   31.7701    7.7059   15.6807 C   0  0  0  0  0  0  0  0  0  0  0  0
   32.5417    8.1089   16.8492 C   0  0  0  0  0  0  0  0  0  0  0  0
   31.7382    8.9416   17.8567 C   0  0  0  0  0  0  0  0  0  0  0  0
   31.4978    8.5096   19.2845 C   0  0  0  0  0  0  0  0  0  0  0  0
   30.6304    9.5192   20.0787 C   0  0  0  0  0  0  0  0  0  0  0  0
   29.4018    8.8984   20.7758 C   0  0  0  0  0  0  0  0  0  0  0  0
   28.4435    8.3191   19.8155 N   0  0  0  0  0  0  0  0  0  0  0  0
   28.2301    6.9783   19.7605 C   0  0  0  0  0  0  0  0  0  0  0  0
   28.6153    6.2012   20.6343 O   0  0  0  0  0  0  0  0  0  0  0  0
   31.6361    8.9012   14.7208 C   0  0  0  0  0  0  0  0  0  0  0  0
   27.5563    9.2855   19.1471 C   0  0  0  0  0  0  0  0  0  0  0  0
   26.1995    9.3897   19.8666 C   0  0  0  0  0  0  0  0  0  0  0  0
   24.7362    4.4553   17.3963 O   0  0  0  0  0  0  0  0  0  0  0  0
   24.1183    4.4752   16.0315 C   0  0  0  0  0  0  0  0  0  0  0  0
   22.5931    4.3157   16.1531 C   0  0  0  0  0  0  0  0  0  0  0  0
   31.6697    4.3250   13.9202 C   0  0  0  0  0  0  0  0  0  0  0  0
   31.9299    3.5877   15.1249 O   0  0  0  0  0  0  0  0  0  0  0  0
   30.5990    3.5391   13.1173 C   0  0  0  0  0  0  0  0  0  0  0  0
   31.2898    2.7953   11.9565 C   0  0  0  0  0  0  0  0  0  0  0  0
   30.2806    1.9129   11.2208 C   0  0  0  0  0  0  0  0  0  0  0  0
   31.8599    3.7873   10.9327 C   0  0  0  0  0  0  0  0  0  0  0  0
   31.1890    4.7139   10.4842 O   0  0  0  0  0  0  0  0  0  0  0  0
   33.0930    3.5508   10.5117 N   0  0  0  0  0  0  0  0  0  0  0  0
   33.6869    4.3522    9.4692 C   0  0  0  0  0  0  0  0  0  0  0  0
   34.4311    3.4314    8.5130 C   0  0  0  0  0  0  0  0  0  0  0  0
   35.0024    4.1969    7.2880 C   0  0  0  0  0  0  0  0  0  0  0  0
   36.2636    4.9971    7.6826 C   0  0  0  0  0  0  0  0  0  0  0  0
   25.7958    5.7810   19.4067 H   0  0  0  0  0  0  0  0  0  0  0  0
   26.3148    4.6169   15.2999 H   0  0  0  0  0  0  0  0  0  0  0  0
   29.2986    6.9557   17.2660 H   0  0  0  0  0  0  0  0  0  0  0  0
   30.1652    5.1352   16.1720 H   0  0  0  0  0  0  0  0  0  0  0  0
   30.8093    6.2738   13.3865 H   0  0  0  0  0  0  0  0  0  0  0  0
   32.8490    5.9165   15.6569 H   0  0  0  0  0  0  0  0  0  0  0  0
   32.9940    6.9252   14.1777 H   0  0  0  0  0  0  0  0  0  0  0  0
   30.8225    7.3438   16.1060 H   0  0  0  0  0  0  0  0  0  0  0  0
   32.9033    7.2138   17.3764 H   0  0  0  0  0  0  0  0  0  0  0  0
   33.4002    8.7179   16.5295 H   0  0  0  0  0  0  0  0  0  0  0  0
   32.2194    9.9220   17.9885 H   0  0  0  0  0  0  0  0  0  0  0  0
   30.7141    9.0833   17.4812 H   0  0  0  0  0  0  0  0  0  0  0  0
   30.9772    7.5406   19.2916 H   0  0  0  0  0  0  0  0  0  0  0  0
   32.4617    8.4118   19.8053 H   0  0  0  0  0  0  0  0  0  0  0  0
   31.2407    9.9882   20.8646 H   0  0  0  0  0  0  0  0  0  0  0  0
   30.2527   10.2947   19.3962 H   0  0  0  0  0  0  0  0  0  0  0  0
   29.7308    8.0964   21.4529 H   0  0  0  0  0  0  0  0  0  0  0  0
   28.8772    9.6737   21.3534 H   0  0  0  0  0  0  0  0  0  0  0  0
   30.9754    8.6277   13.8849 H   0  0  0  0  0  0  0  0  0  0  0  0
   32.6285    9.1711   14.3307 H   0  0  0  0  0  0  0  0  0  0  0  0
   31.2086    9.7589   15.2607 H   0  0  0  0  0  0  0  0  0  0  0  0
   28.0295   10.2785   19.1472 H   0  0  0  0  0  0  0  0  0  0  0  0
   27.3787    8.9640   18.1102 H   0  0  0  0  0  0  0  0  0  0  0  0
   25.7077    8.4058   19.8661 H   0  0  0  0  0  0  0  0  0  0  0  0
   25.5624   10.1184   19.3440 H   0  0  0  0  0  0  0  0  0  0  0  0
   26.3589    9.7195   20.9038 H   0  0  0  0  0  0  0  0  0  0  0  0
   24.3476    5.4318   15.5392 H   0  0  0  0  0  0  0  0  0  0  0  0
   24.5257    3.6475   15.4324 H   0  0  0  0  0  0  0  0  0  0  0  0
   22.1522    4.2293   15.1491 H   0  0  0  0  0  0  0  0  0  0  0  0
   22.1721    5.1941   16.6641 H   0  0  0  0  0  0  0  0  0  0  0  0
   22.3643    3.4095   16.7332 H   0  0  0  0  0  0  0  0  0  0  0  0
   32.6216    4.4157   13.3765 H   0  0  0  0  0  0  0  0  0  0  0  0
   32.9038    3.6816   15.6277 H   0  0  0  0  0  0  0  0  0  0  0  0
   30.1026    2.8145   13.7796 H   0  0  0  0  0  0  0  0  0  0  0  0
   29.8526    4.2409   12.7169 H   0  0  0  0  0  0  0  0  0  0  0  0
   32.0982    2.1846   12.3849 H   0  0  0  0  0  0  0  0  0  0  0  0
   30.7877    1.3786   10.4039 H   0  0  0  0  0  0  0  0  0  0  0  0
   29.4784    2.5408   10.8059 H   0  0  0  0  0  0  0  0  0  0  0  0
   29.8497    1.1844   11.9235 H   0  0  0  0  0  0  0  0  0  0  0  0
   33.6657    2.7302   10.9684 H   0  0  0  0  0  0  0  0  0  0  0  0
   32.8970    4.8943    8.9284 H   0  0  0  0  0  0  0  0  0  0  0  0
   34.3873    5.0738    9.9152 H   0  0  0  0  0  0  0  0  0  0  0  0
   35.2706    2.9557    9.0410 H   0  0  0  0  0  0  0  0  0  0  0  0
   33.7447    2.6560    8.1419 H   0  0  0  0  0  0  0  0  0  0  0  0
   35.2699    3.4787    6.4991 H   0  0  0  0  0  0  0  0  0  0  0  0
   34.2437    4.8957    6.9058 H   0  0  0  0  0  0  0  0  0  0  0  0
   36.0008    5.7418    8.4482 H   0  0  0  0  0  0  0  0  0  0  0  0
   36.6653    5.5090    6.7957 H   0  0  0  0  0  0  0  0  0  0  0  0
   37.0228    4.3100    8.0846 H   0  0  0  0  0  0  0  0  0  0  0  0
  1  2  2  0  0  0  0
  1  4  1  0  0  0  0
  1 24  1  0  0  0  0
  2  3  1  0  0  0  0
  2 39  1  0  0  0  0
  3  6  2  0  0  0  0
  3 19  1  0  0  0  0
  4  5  2  0  0  0  0
  4 40  1  0  0  0  0
  5  6  1  0  0  0  0
  5  7  1  0  0  0  0
  6 41  1  0  0  0  0
  7  8  2  0  0  0  0
  7  9  1  0  0  0  0
  9 10  1  0  0  0  0
  9 42  1  0  0  0  0
 10 11  1  0  0  0  0
 10 27  1  0  0  0  0
 10 43  1  0  0  0  0
 11 12  1  0  0  0  0
 11 44  1  0  0  0  0
 11 45  1  0  0  0  0
 12 13  1  0  0  0  0
 12 21  1  0  0  0  0
 12 46  1  0  0  0  0
 13 14  1  0  0  0  0
 13 47  1  0  0  0  0
 13 48  1  0  0  0  0
 14 15  1  0  0  0  0
 14 49  1  0  0  0  0
 14 50  1  0  0  0  0
 15 16  1  0  0  0  0
 15 51  1  0  0  0  0
 15 52  1  0  0  0  0
 16 17  1  0  0  0  0
 16 53  1  0  0  0  0
 16 54  1  0  0  0  0
 17 18  1  0  0  0  0
 17 55  1  0  0  0  0
 17 56  1  0  0  0  0
 18 19  1  0  0  0  0
 18 22  1  0  0  0  0
 19 20  2  0  0  0  0
 21 57  1  0  0  0  0
 21 58  1  0  0  0  0
 21 59  1  0  0  0  0
 22 23  1  0  0  0  0
 22 60  1  0  0  0  0
 22 61  1  0  0  0  0
 23 62  1  0  0  0  0
 23 63  1  0  0  0  0
 23 64  1  0  0  0  0
 24 25  1  0  0  0  0
 25 26  1  0  0  0  0
 25 65  1  0  0  0  0
 25 66  1  0  0  0  0
 26 67  1  0  0  0  0
 26 68  1  0  0  0  0
 26 69  1  0  0  0  0
 27 28  1  0  0  0  0
 27 29  1  0  0  0  0
 27 70  1  0  0  0  0
 28 71  1  0  0  0  0
 29 30  1  0  0  0  0
 29 72  1  0  0  0  0
 29 73  1  0  0  0  0
 30 31  1  0  0  0  0
 30 32  1  0  0  0  0
 30 74  1  0  0  0  0
 31 75  1  0  0  0  0
 31 76  1  0  0  0  0
 31 77  1  0  0  0  0
 32 33  2  0  0  0  0
 32 34  1  0  0  0  0
 34 35  1  0  0  0  0
 34 78  1  0  0  0  0
 35 36  1  0  0  0  0
 35 79  1  0  0  0  0
 35 80  1  0  0  0  0
 36 37  1  0  0  0  0
 36 81  1  0  0  0  0
 36 82  1  0  0  0  0
 37 38  1  0  0  0  0
 37 83  1  0  0  0  0
 37 84  1  0  0  0  0
 38 85  1  0  0  0  0
 38 86  1  0  0  0  0
 38 87  1  0  0  0  0
M  END
$$$$
